/*--------------------------------*- C++ -*----------------------------------*\
| =========                 |                                                 |
| \\      /  F ield         | OpenFOAM: The Open Source CFD Toolbox           |
|  \\    /   O peration     | Version:  3.0.1                                 |
|   \\  /    A nd           | Web:      www.OpenFOAM.org                      |
|    \\/     M anipulation  |                                                 |
\*---------------------------------------------------------------------------*/
FoamFile
{
    version     2.0;
    format      ascii;
    class       dictionary;
    location    "constant";
    object      transportProperties;
}
// * * * * * * * * * * * * * * * * * * * * * * * * * * * * * * * * * * * * * //

phases (water sludge);

water
{
    transportModel  Newtonian;
    nu              [0 2 -1 0 0 0 0] 1.005e-06;
    rho             [1 -3 0 0 0 0 0] 998;
}

sludge
{
    transportModel  Newtonian;
    nu              [0 2 -1 0 0 0 0] 0.955e-06;
    rho             [1 -3 0 0 0 0 0] 1050;
}

sigma           [1 0 -2 0 0 0 0] 0;


// ************************************************************************* //
